<edges>
    <edge id="e0" from="n0" to="n1"/>
    <edge id="e1" from="n1" to="n2"/>
    <edge id="e2" from="n2" to="n3"/>
    <edge id="e3" from="n3" to="n0"/> <!-- closing the loop -->
</edges>
