<nodes>
    <node id="n0" x="0" y="0"/>
    <node id="n1" x="100" y="0"/>
    <node id="n2" x="100" y="100"/>
    <node id="n3" x="0" y="100"/>
</nodes>
