<?xml version='1.0' encoding='utf-8'?>
<edges>
    <edge id="e0" from="n0" to="n1" />
    <edge id="e1" from="n1" to="n2" />
    <edge id="e2" from="n2" to="n3" />
    <edge id="e3" from="n3" to="n4" />
    <edge id="e4" from="n4" to="n5" />
    <edge id="e5" from="n5" to="n6" />
    <edge id="e6" from="n6" to="n7" />
    <edge id="e7" from="n7" to="n8" />
    <edge id="e8" from="n8" to="n9" />
    <edge id="e9" from="n9" to="n10" />
    <edge id="e10" from="n10" to="n11" />
    <edge id="e11" from="n11" to="n12" />
    <edge id="e12" from="n12" to="n13" />
    <edge id="e13" from="n13" to="n14" />
    <edge id="e14" from="n14" to="n15" />
    <edge id="e15" from="n15" to="n16" />
    <edge id="e16" from="n16" to="n17" />
    <edge id="e17" from="n17" to="n18" />
    <edge id="e18" from="n18" to="n19" />
    <edge id="e19" from="n19" to="n20" />
    <edge id="e20" from="n20" to="n21" />
    <edge id="e21" from="n21" to="n22" />
    <edge id="e22" from="n22" to="n23" />
    <edge id="e23" from="n23" to="n24" />
    <edge id="e24" from="n24" to="n25" />
    <edge id="e25" from="n25" to="n26" />
    <edge id="e26" from="n26" to="n27" />
    <edge id="e27" from="n27" to="n28" />
    <edge id="e28" from="n28" to="n29" />
    <edge id="e29" from="n29" to="n30" />
    <edge id="e30" from="n30" to="n31" />
    <edge id="e31" from="n31" to="n32" />
    <edge id="e32" from="n32" to="n33" />
    <edge id="e33" from="n33" to="n34" />
    <edge id="e34" from="n34" to="n35" />
    <edge id="e35" from="n35" to="n36" />
    <edge id="e36" from="n36" to="n37" />
    <edge id="e37" from="n37" to="n38" />
    <edge id="e38" from="n38" to="n39" />
    <edge id="e39" from="n39" to="n0" />
</edges>