<?xml version='1.0' encoding='utf-8'?>
<nodes>
    <node id="n0" x="6366.20" y="0.00" />
    <node id="n1" x="6287.82" y="995.89" />
    <node id="n2" x="6054.61" y="1967.26" />
    <node id="n3" x="5672.32" y="2890.19" />
    <node id="n4" x="5150.36" y="3741.96" />
    <node id="n5" x="4501.58" y="4501.58" />
    <node id="n6" x="3741.96" y="5150.36" />
    <node id="n7" x="2890.19" y="5672.32" />
    <node id="n8" x="1967.26" y="6054.61" />
    <node id="n9" x="995.89" y="6287.82" />
    <node id="n10" x="0.00" y="6366.20" />
    <node id="n11" x="-995.89" y="6287.82" />
    <node id="n12" x="-1967.26" y="6054.61" />
    <node id="n13" x="-2890.19" y="5672.32" />
    <node id="n14" x="-3741.96" y="5150.36" />
    <node id="n15" x="-4501.58" y="4501.58" />
    <node id="n16" x="-5150.36" y="3741.96" />
    <node id="n17" x="-5672.32" y="2890.19" />
    <node id="n18" x="-6054.61" y="1967.26" />
    <node id="n19" x="-6287.82" y="995.89" />
    <node id="n20" x="-6366.20" y="0.00" />
    <node id="n21" x="-6287.82" y="-995.89" />
    <node id="n22" x="-6054.61" y="-1967.26" />
    <node id="n23" x="-5672.32" y="-2890.19" />
    <node id="n24" x="-5150.36" y="-3741.96" />
    <node id="n25" x="-4501.58" y="-4501.58" />
    <node id="n26" x="-3741.96" y="-5150.36" />
    <node id="n27" x="-2890.19" y="-5672.32" />
    <node id="n28" x="-1967.26" y="-6054.61" />
    <node id="n29" x="-995.89" y="-6287.82" />
    <node id="n30" x="-0.00" y="-6366.20" />
    <node id="n31" x="995.89" y="-6287.82" />
    <node id="n32" x="1967.26" y="-6054.61" />
    <node id="n33" x="2890.19" y="-5672.32" />
    <node id="n34" x="3741.96" y="-5150.36" />
    <node id="n35" x="4501.58" y="-4501.58" />
    <node id="n36" x="5150.36" y="-3741.96" />
    <node id="n37" x="5672.32" y="-2890.19" />
    <node id="n38" x="6054.61" y="-1967.26" />
    <node id="n39" x="6287.82" y="-995.89" />
</nodes>