<configuration>
    <input>
        <net-file value="../network/ring_network/ring.net.xml"/>
        <route-files value="../route/ring.rou.xml"/>
    </input>

    <time>
        <step-length value="0.1"/>  <!-- Default is 1.0 -->
    </time>

    <report>
        <verbose value="true"/>
        <no-step-log value="true"/>
    </report>
</configuration>
