<edges>
    <edge id="e0" from="start" to="end" numLanes="1" speed="25"/>
</edges>
