<?xml version="1.0" encoding="UTF-8"?>

<!-- generated on 2025-07-09 17:30:29 by Eclipse SUMO netconvert Version 1.23.1
<netconvertConfiguration xmlns:xsi="http://www.w3.org/2001/XMLSchema-instance" xsi:noNamespaceSchemaLocation="http://sumo.dlr.de/xsd/netconvertConfiguration.xsd">

    <input>
        <node-files value="road.nod.xml"/>
        <edge-files value="road.edg.xml"/>
    </input>

    <output>
        <output-file value="road.net.xml"/>
    </output>

</netconvertConfiguration>
-->

<net version="1.20" junctionCornerDetail="5" limitTurnSpeed="5.50" xmlns:xsi="http://www.w3.org/2001/XMLSchema-instance" xsi:noNamespaceSchemaLocation="http://sumo.dlr.de/xsd/net_file.xsd">

    <location netOffset="0.00,0.00" convBoundary="0.00,0.00,50000.00,0.00" origBoundary="0.00,0.00,50000.00,0.00" projParameter="!"/>

    <edge id="e0" from="start" to="end" priority="-1">
        <lane id="e0_0" index="0" speed="25.00" length="50000.00" shape="0.00,-1.60 50000.00,-1.60"/>
    </edge>

    <junction id="end" type="dead_end" x="50000.00" y="0.00" incLanes="e0_0" intLanes="" shape="50000.00,-3.20 50000.00,0.00"/>
    <junction id="start" type="dead_end" x="0.00" y="0.00" incLanes="" intLanes="" shape="0.00,0.00 0.00,-3.20"/>

</net>
